input/case2383busPsse30_rev22.raw
0,   100.00, 30, 0, 1,  60.00     / PSS(R)E 30 RAW created by rawd30  THU, AUG 24 2017  13:49
Polish test system
2383 BUSES TEST CASE
     1,'BUS_1       ', 220.0000,1,     0.000,     0.000,   1,   1,1.01181,   3.9515,   1
     2,'BUS_2       ', 220.0000,1,     0.000,     0.000,   1,   1,0.99866,   5.0457,   1
     3,'BUS_3       ', 220.0000,1,     0.000,     0.000,   1,   1,0.97652, -10.1357,   1
     4,'BUS_4       ', 220.0000,1,     0.000,     0.000,   1,   1,0.98218,   1.1811,   1
     5,'BUS_5       ', 220.0000,1,     0.000,     0.000,   1,   1,0.99186,  -5.3911,   1
     6,'BUS_6       ', 400.0000,1,     0.000,     0.000,   1,   1,0.98318,  -2.1307,   1
     7,'BUS_7       ', 220.0000,1,     0.000,     0.000,   1,   1,0.97307,  -6.5944,   1
     8,'BUS_8       ', 400.0000,1,     0.000,     0.000,   1,   1,0.99401,  -1.6232,   1
     9,'BUS_9       ', 400.0000,1,     0.000,     0.000,   1,   1,0.98089,  -4.2099,   1
    10,'BUS_10      ', 220.0000,2,     0.000,     0.000,   1,   1,1.00000,  -4.3780,   1
    11,'BUS_11      ', 220.0000,1,     0.000,     0.000,   1,   1,0.98862,   2.0658,   1
    12,'BUS_12      ', 220.0000,1,     0.000,     0.000,   1,   1,0.96816,  -7.1052,   1
    13,'BUS_13      ', 220.0000,1,     0.000,     0.000,   1,   1,0.97634,  -6.4179,   1
    14,'BUS_14      ', 220.0000,1,     0.000,     0.000,   1,   1,0.98196,   2.5846,   1
    15,'BUS_15      ', 400.0000,1,     0.000,     0.000,   1,   1,0.97584,  -5.4368,   1
    16,'BUS_16      ', 220.0000,2,     0.000,     0.000,   1,   1,1.01447,   4.3831,   1
    17,'BUS_17      ', 220.0000,2,     0.000,     0.000,   1,   1,1.00346,   5.7526,   1
    18,'BUS_18      ', 400.0000,3,     0.000,     0.000,   1,   1,1.00000,   0.0000,   1
    19,'BUS_19      ', 220.0000,1,     0.000,     0.000,   1,   1,0.97503,  -7.1314,   1
    20,'BUS_20      ', 400.0000,1,     0.000,     0.000,   1,   1,0.99858,  -1.1696,   1
    21,'BUS_21      ', 220.0000,1,     0.000,     0.000,   1,   1,0.97299,  -7.0108,   1
    22,'BUS_22      ', 220.0000,1,     0.000,     0.000,   1,   1,0.97985,   0.6540,   1
    23,'BUS_23      ', 220.0000,1,     0.000,     0.000,   1,   1,0.99930,  -1.5169,   1
    24,'BUS_24      ', 220.0000,1,     0.000,     0.000,   1,   1,1.01414,   0.0425,   1
    25,'BUS_25      ', 220.0000,1,     0.000,     0.000,   1,   1,1.01418,   1.8369,   1
    26,'BUS_26      ', 220.0000,1,     0.000,     0.000,   1,   1,0.98579,  -3.5392,   1
    27,'BUS_27      ', 220.0000,1,     0.000,     0.000,   1,   1,0.99924,  -1.3398,   1
    28,'BUS_28      ', 220.0000,1,     0.000,     0.000,   1,   1,0.99924,  -1.3398,   1
    29,'BUS_29      ', 220.0000,2,     0.000,     0.000,   1,   1,1.00768,   0.4784,   1
    30,'BUS_30      ', 220.0000,2,     0.000,     0.000,   1,   1,1.00768,   0.4784,   1
    31,'BUS_31      ', 400.0000,2,     0.000,     0.000,   1,   1,0.99317,   2.6834,   1
    32,'BUS_32      ', 400.0000,1,     0.000,     0.000,   1,   1,0.99317,   2.6834,   1
    33,'BUS_33      ', 220.0000,1,     0.000,     0.000,   1,   1,0.99439,  -1.9694,   1
    34,'BUS_34      ', 400.0000,1,     0.000,     0.000,   1,   1,1.01456,  -0.4875,   1
    35,'BUS_35      ', 400.0000,1,     0.000,     0.000,   1,   1,1.01456,  -0.4875,   1
    36,'BUS_36      ', 400.0000,1,     0.000,     0.000,   1,   1,0.97056,   0.2377,   1
    37,'BUS_37      ', 220.0000,1,     0.000,     0.000,   1,   1,0.99183,  -1.6166,   1
    38,'BUS_38      ', 220.0000,1,     0.000,     0.000,   1,   1,0.99183,  -1.6166,   1
    39,'BUS_39      ', 400.0000,1,     0.000,     0.000,   1,   1,0.98979,   2.3076,   1
    40,'BUS_40      ', 400.0000,1,     0.000,     0.000,   1,   1,0.98979,   2.3076,   1
    41,'BUS_41      ', 220.0000,2,     0.000,     0.000,   1,   1,1.01936,   3.3952,   1
    42,'BUS_42      ', 220.0000,2,     0.000,     0.000,   1,   1,1.01936,   3.3952,   1
    43,'BUS_43      ', 400.0000,2,     0.000,     0.000,   1,   1,1.00000,   3.4945,   1
    44,'BUS_44      ', 400.0000,2,     0.000,     0.000,   1,   1,1.00000,   3.4945,   1
    45,'BUS_45      ', 220.0000,2,     0.000,     0.000,   1,   1,0.99770,  -0.8923,   1
    46,'BUS_46      ', 220.0000,1,     0.000,     0.000,   1,   1,0.99770,  -0.8923,   1
    47,'BUS_47      ', 220.0000,1,     0.000,     0.000,   1,   1,0.99804,  -1.4291,   1
    48,'BUS_48      ', 220.0000,1,     0.000,     0.000,   1,   1,0.99792,  -1.1239,   1
    49,'BUS_49      ', 220.0000,1,     0.000,     0.000,   1,   1,0.99792,  -1.1239,   1
    50,'BUS_50      ', 400.0000,1,     0.000,     0.000,   1,   1,1.00257,   1.0209,   1
    51,'BUS_51      ', 400.0000,1,     0.000,     0.000,   1,   1,1.00257,   1.0209,   1
    52,'BUS_52      ', 220.0000,1,     0.000,     0.000,   1,   1,1.00505,   0.3797,   1
    53,'BUS_53      ', 220.0000,1,     0.000,     0.000,   1,   1,1.00679,   0.4669,   1
    54,'BUS_54      ', 220.0000,1,     0.000,     0.000,   1,   1,1.01449,   1.8725,   1
    55,'BUS_55      ', 220.0000,1,     0.000,     0.000,   1,   1,0.99096,  -0.3957,   1
    56,'BUS_56      ', 220.0000,1,     0.000,     0.000,   1,   1,1.01055,  -1.1470,   1
    57,'BUS_57      ', 220.0000,1,     0.000,     0.000,   1,   1,1.01897,   0.6772,   1
    58,'BUS_58      ', 220.0000,1,     0.000,     0.000,   1,   1,1.01919,   0.6776,   1
    59,'BUS_59      ', 220.0000,1,     0.000,     0.000,   1,   1,0.99516,   4.4401,   1
    60,'BUS_60      ', 220.0000,1,     0.000,     0.000,   1,   1,0.99806,  -1.6246,   1
    61,'BUS_61      ', 220.0000,1,     0.000,     0.000,   1,   1,0.99894,   6.5076,   1
    62,'BUS_62      ', 220.0000,1,     0.000,     0.000,   1,   1,0.99894,   6.5076,   1
    63,'BUS_63      ', 220.0000,2,     0.000,     0.000,   1,   1,1.00000,   4.8364,   1
    64,'BUS_64      ', 220.0000,2,     0.000,     0.000,   1,   1,1.00211,   4.7202,   1
    65,'BUS_65      ', 220.0000,1,     0.000,     0.000,   1,   1,0.99419,   2.0732,   1
    66,'BUS_66      ', 220.0000,1,     0.000,     0.000,   1,   1,1.03789,  -5.2055,   1
    67,'BUS_67      ', 400.0000,2,     0.000,     0.000,   1,   1,1.00000,  -3.7626,   1
    68,'BUS_68      ', 220.0000,1,     0.000,     0.000,   1,   1,1.02233,  -4.1357,   1
    69,'BUS_69      ', 220.0000,1,     0.000,     0.000,   1,   1,0.99802,   1.8514,   1
    70,'BUS_70      ', 220.0000,1,     0.000,     0.000,   1,   1,1.01273,  -0.4671,   1
    71,'BUS_71      ', 220.0000,1,     0.000,     0.000,   1,   1,0.99591,   1.1080,   1
    72,'BUS_72      ', 220.0000,1,     0.000,     0.000,   1,   1,0.99591,   1.1080,   1
    73,'BUS_73      ', 220.0000,1,     0.000,     0.000,   1,   1,1.01689,   0.2251,   1
    74,'BUS_74      ', 220.0000,1,     0.000,     0.000,   1,   1,1.01503,  -0.4590,   1
    75,'BUS_75      ', 400.0000,1,     0.000,     0.000,   1,   1,0.98949,  -0.4877,   1
    76,'BUS_76      ', 400.0000,1,     0.000,     0.000,   1,   1,0.98949,  -0.4877,   1
    77,'BUS_77      ', 220.0000,1,     0.000,     0.000,   1,   1,0.99540,   0.2978,   1
    78,'BUS_78      ', 220.0000,1,     0.000,     0.000,   1,   1,1.00327,  -2.7931,   1
    79,'BUS_79      ', 220.0000,1,     0.000,     0.000,   1,   1,1.00250,   2.9838,   1
    80,'BUS_80      ', 220.0000,1,     0.000,     0.000,   1,   1,1.01956,   0.7276,   1
    81,'BUS_81      ', 220.0000,1,     0.000,     0.000,   1,   1,1.01956,   0.7276,   1
    82,'BUS_82      ', 220.0000,1,     0.000,     0.000,   1,   1,0.99418,   5.1394,   1
    83,'BUS_83      ', 220.0000,2,     0.000,     0.000,   1,   1,1.00000,   1.5955,   1
    84,'BUS_84      ', 220.0000,2,     0.000,     0.000,   1,   1,1.00000,   1.5955,   1
    85,'BUS_85      ', 220.0000,2,     0.000,     0.000,   1,   1,1.00000,   0.2591,   1
    86,'BUS_86      ', 220.0000,2,     0.000,     0.000,   1,   1,1.00000,   0.2591,   1
    87,'BUS_87      ', 220.0000,1,     0.000,     0.000,   1,   1,1.00315,   1.3324,   1
    88,'BUS_88      ', 220.0000,1,     0.000,     0.000,   1,   1,1.00315,   1.3324,   1
    89,'BUS_89      ', 220.0000,1,     0.000,     0.000,   1,   1,0.99370,   1.3350,   1
    90,'BUS_90      ', 220.0000,1,     0.000,     0.000,   1,   1,0.99579,   0.4173,   1
    91,'BUS_91      ', 220.0000,1,     0.000,     0.000,   1,   1,0.99339,   2.7506,   1
    92,'BUS_92      ', 400.0000,1,     0.000,     0.000,   1,   1,0.98967,  -2.5457,   1
    93,'BUS_93      ', 220.0000,2,     0.000,     0.000,   1,   1,1.00104,   3.8185,   1
    94,'BUS_94      ', 220.0000,1,     0.000,     0.000,   1,   1,1.00104,   3.8185,   1
    95,'BUS_95      ', 220.0000,2,     0.000,     0.000,   1,   1,1.00465,   2.5917,   1
    96,'BUS_96      ', 220.0000,1,     0.000,     0.000,   1,   1,1.00465,   2.5917,   1
    97,'BUS_97      ', 220.0000,2,     0.000,     0.000,   1,   1,1.00000,  -1.1279,   1
    98,'BUS_98      ', 400.0000,1,     0.000,     0.000,   1,   1,0.99254,   1.0475,   1
    99,'BUS_99      ', 400.0000,1,     0.000,     0.000,   1,   1,0.99254,   1.0475,   1
   100,'BUS_100     ', 400.0000,1,     0.000,     0.000,   1,   1,0.99440,  -1.2528,   1
   101,'BUS_101     ', 400.0000,1,     0.000,     0.000,   1,   1,0.99440,  -1.2528,   1
   102,'BUS_102     ', 220.0000,1,     0.000,     0.000,   1,   1,0.99538,   1.2623,   1
   103,'BUS_103     ', 220.0000,2,     0.000,     0.000,   1,   1,1.00000,   0.0649,   1
   104,'BUS_104     ', 220.0000,2,     0.000,     0.000,   1,   1,1.00000,   0.0649,   1
   105,'BUS_105     ', 400.0000,2,     0.000,     0.000,   1,   1,1.00000,  -2.7805,   1
   106,'BUS_106     ', 400.0000,1,     0.000,     0.000,   1,   1,1.00000,  -2.7805,   1
   107,'BUS_107     ', 220.0000,1,     0.000,     0.000,   1,   1,1.01095,  -0.7628,   1
   108,'BUS_108     ', 220.0000,1,     0.000,     0.000,   1,   1,1.01223,  -0.5618,   1
   109,'BUS_109     ', 220.0000,2,     0.000,     0.000,   1,   1,1.00000,   7.4004,   1
   110,'BUS_110     ', 220.0000,2,     0.000,     0.000,   1,   1,1.00000,   7.4004,   1
   111,'BUS_111     ', 220.0000,2,     0.000,     0.000,   1,   1,1.00000,   1.3093,   1
   112,'BUS_112     ', 220.0000,1,     0.000,     0.000,   1,   1,1.00000,   1.3093,   1
   113,'BUS_113     ', 220.0000,1,     0.000,     0.000,   1,   1,1.00179, -16.3004,   1
   114,'BUS_114     ', 220.0000,1,     0.000,     0.000,   1,   1,1.01432, -15.1652,   1
   115,'BUS_115     ', 400.0000,1,     0.000,     0.000,   1,   1,0.95596, -12.1902,   1
   116,'BUS_116     ', 400.0000,1,     0.000,     0.000,   1,   1,0.95596, -12.1902,   1
   117,'BUS_117     ', 220.0000,1,     0.000,     0.000,   1,   1,0.97916, -14.0267,   1
   118,'BUS_118     ', 220.0000,1,     0.000,     0.000,   1,   1,0.96914, -22.1927,   1
   119,'BUS_119     ', 220.0000,1,     0.000,     0.000,   1,   1,0.96914, -22.1927,   1
   120,'BUS_120     ', 220.0000,1,     0.000,     0.000,   1,   1,0.95695, -21.8354,   1
   121,'BUS_121     ', 220.0000,1,     0.000,     0.000,   1,   1,1.00122, -16.9943,   1
   122,'BUS_122     ', 220.0000,1,     0.000,     0.000,   1,   1,1.00122, -16.9943,   1
   123,'BUS_123     ', 220.0000,2,     0.000,     0.000,   1,   1,1.00000,  -1.3595,   1
   124,'BUS_124     ', 220.0000,2,     0.000,     0.000,   1,   1,1.00000,  -1.3595,   1
   125,'BUS_125     ', 220.0000,2,     0.000,     0.000,   1,   1,1.00000, -18.8253,   1
   126,'BUS_126     ', 220.0000,1,     0.000,     0.000,   1,   1,1.00000, -18.8253,   1
   127,'BUS_127     ', 400.0000,2,     0.000,     0.000,   1,   1,1.00000, -12.1863,   1
   128,'BUS_128     ', 400.0000,1,     0.000,     0.000,   1,   1,1.00000, -12.1863,   1
   129,'BUS_129     ', 220.0000,1,     0.000,     0.000,   1,   1,0.96907, -18.4872,   1
   130,'BUS_130     ', 220.0000,1,     0.000,     0.000,   1,   1,0.95704, -20.2652,   1
   131,'BUS_131     ', 220.0000,2,     0.000,     0.000,   1,   1,1.03697, -12.0824,   1
   132,'BUS_132     ', 220.0000,2,     0.000,     0.000,   1,   1,1.03697, -12.0824,   1
   133,'BUS_133     ', 400.0000,1,     0.000,     0.000,   1,   1,0.99088, -10.5456,   1
   134,'BUS_134     ', 400.0000,1,     0.000,     0.000,   1,   1,0.99088, -10.5456,   1
   135,'BUS_135     ', 220.0000,1,     0.000,     0.000,   1,   1,0.96831, -22.1743,   1
   136,'BUS_136     ', 220.0000,1,     0.000,     0.000,   1,   1,0.96831, -22.1743,   1
   137,'BUS_137     ', 400.0000,1,     0.000,     0.000,   1,   1,0.96373, -10.3229,   1
   138,'BUS_138     ', 400.0000,1,     0.000,     0.000,   1,   1,0.96373, -10.3229,   1
   139,'BUS_139     ', 220.0000,2,     0.000,     0.000,   1,   1,1.00000,  -1.4633,   1
   140,'BUS_140     ', 220.0000,2,     0.000,     0.000,   1,   1,1.00000,  -1.4633,   1
   141,'BUS_141     ', 220.0000,1,     0.000,     0.000,   1,   1,0.97586, -19.5590,   1
   142,'BUS_142     ', 220.0000,1,     0.000,     0.000,   1,   1,0.96760, -22.4235,   1
   143,'BUS_143     ', 220.0000,1,     0.000,     0.000,   1,   1,0.98743, -16.1248,   1
   144,'BUS_144     ', 220.0000,1,     0.000,     0.000,   1,   1,0.98743, -16.1248,   1
   145,'BUS_145     ', 400.0000,1,     0.000,     0.000,   1,   1,0.91360, -15.6483,   1
   146,'BUS_146     ', 400.0000,1,     0.000,     0.000,   1,   1,0.91360, -15.6483,   1
   147,'BUS_147     ', 220.0000,1,     0.000,     0.000,   1,   1,0.97779, -17.7974,   1
   148,'BUS_148     ', 220.0000,1,     0.000,     0.000,   1,   1,0.97779, -17.7974,   1
   149,'BUS_149     ', 220.0000,1,     0.000,     0.000,   1,   1,0.98327, -16.8652,   1
   150,'BUS_150     ', 220.0000,1,     0.000,     0.000,   1,   1,1.00428, -15.7274,   1
   151,'BUS_151     ', 220.0000,1,     0.000,     0.000,   1,   1,1.00428, -15.7274,   1
   152,'BUS_152     ', 220.0000,1,     0.000,     0.000,   1,   1,1.00318, -13.9400,   1
   153,'BUS_153     ', 220.0000,1,     0.000,     0.000,   1,   1,1.00318, -13.9400,   1
   154,'BUS_154     ', 220.0000,1,     0.000,     0.000,   1,   1,0.96083, -19.5185,   1
   155,'BUS_155     ', 220.0000,1,     0.000,     0.000,   1,   1,0.97341, -10.2176,   1
   156,'BUS_156     ', 220.0000,1,     0.000,     0.000,   1,   1,1.06626, -14.0142,   1
   157,'BUS_157     ', 400.0000,1,     0.000,     0.000,   1,   1,0.99041, -12.3185,   1
   158,'BUS_158     ', 400.0000,1,     0.000,     0.000,   1,   1,0.99041, -12.3185,   1
   159,'BUS_159     ', 400.0000,1,     0.000,     0.000,   1,   1,0.99006,  -9.7055,   1
   160,'BUS_160     ', 400.0000,1,     0.000,     0.000,   1,   1,0.99006,  -9.7055,   1
   161,'BUS_161     ', 220.0000,1,     0.000,     0.000,   1,   1,0.99790, -14.4000,   1
   162,'BUS_162     ', 220.0000,1,     0.000,     0.000,   1,   1,0.99790, -14.4000,   1
   163,'BUS_163     ', 220.0000,1,     0.000,     0.000,   1,   1,1.01788, -11.6216,   1
   164,'BUS_164     ', 220.0000,1,     0.000,     0.000,   1,   1,1.01788, -11.6216,   1
   165,'BUS_165     ', 400.0000,1,     0.000,     0.000,   1,   1,0.95747,  -9.3424,   1
   166,'BUS_166     ', 220.0000,1,     0.000,     0.000,   1,   1,0.98411,  -9.4894,   1
   167,'BUS_167     ', 220.0000,1,     0.000,     0.000,   1,   1,0.98411,  -9.4894,   1
   168,'BUS_168     ', 400.0000,1,     0.000,     0.000,   1,   1,0.98318, -11.2997,   1
   169,'BUS_169     ', 400.0000,1,     0.000,     0.000,   1,   1,0.98318, -11.2997,   1
   170,'BUS_170     ', 220.0000,1,     0.000,     0.000,   1,   1,0.97317, -11.8892,   1
   171,'BUS_171     ', 220.0000,1,     0.000,     0.000,   1,   1,0.97317, -11.8892,   1
   172,'BUS_172     ', 220.0000,1,     0.000,     0.000,   1,   1,0.98486, -12.1587,   1
   173,'BUS_173     ', 220.0000,1,     0.000,     0.000,   1,   1,0.98486, -12.1587,   1
   174,'BUS_174     ', 220.0000,1,     0.000,     0.000,   1,   1,0.97075,  -9.7870,   1
   175,'BUS_175     ', 220.0000,1,     0.000,     0.000,   1,   1,0.97075,  -9.7870,   1
   176,'BUS_176     ', 400.0000,2,     0.000,     0.000,   1,   1,1.00000,  -8.1273,   1
   177,'BUS_177     ', 400.0000,2,     0.000,     0.000,   1,   1,1.00000,  -8.1273,   1
   178,'BUS_178     ', 220.0000,1,     0.000,     0.000,   1,   1,1.02887, -15.8229,   1
   179,'BUS_179     ', 220.0000,1,     0.000,     0.000,   1,   1,1.02887, -15.8229,   1
   180,'BUS_180     ', 400.0000,2,     0.000,     0.000,   1,   1,1.00000,  -5.2920,   1
   181,'BUS_181     ', 220.0000,2,     0.000,     0.000,   1,   1,1.00000,   8.1380,   1
   182,'BUS_182     ', 400.0000,2,     0.000,     0.000,   1,   1,1.00000, -10.2925,   1
   183,'BUS_183     ', 400.0000,1,     0.000,     0.000,   1,   1,1.02075,  -1.3449,   1
   184,'BUS_184     ', 220.0000,2,     0.000,     0.000,   1,   1,1.00000,  -1.7679,   1
   185,'BUS_185     ', 400.0000,2,     0.000,     0.000,   1,   1,1.00000,  -6.0006,   1
   186,'BUS_186     ', 220.0000,2,     0.000,     0.000,   1,   1,1.00000, -18.9584,   1
   187,'BUS_187     ', 110.0000,1,     0.000,     0.000,   1,   1,0.98031, -11.1669,   1
   188,'BUS_188     ', 110.0000,1,     0.000,     0.000,   1,   1,0.95311, -15.8166,   1
   189,'BUS_189     ', 110.0000,1,     0.000,     0.000,   1,   1,0.93267, -14.7902,   1
   190,'BUS_190     ', 110.0000,1,     0.000,     0.000,   1,   1,1.01895,   0.6726,   1
   191,'BUS_191     ', 110.0000,1,     0.000,     0.000,   1,   1,0.99723,   0.1962,   1
   192,'BUS_192     ', 110.0000,2,     0.000,     0.000,   1,   1,1.02499,  -7.5070,   1
   193,'BUS_193     ', 110.0000,1,     0.000,     0.000,   1,   1,1.02624,  -7.5599,   1
   194,'BUS_194     ', 110.0000,1,     0.000,     0.000,   1,   1,1.02424,  -7.6955,   1
   195,'BUS_195     ', 110.0000,1,     0.000,     0.000,   1,   1,0.99386, -11.6875,   1
   196,'BUS_196     ', 110.0000,2,     0.000,     0.000,   1,   1,0.97234, -23.2157,   1
   197,'BUS_197     ', 110.0000,1,     0.000,     0.000,   1,   1,0.98020,  -6.5521,   1
   198,'BUS_198     ', 110.0000,2,     0.000,     0.000,   1,   1,0.98734, -11.5869,   1
   199,'BUS_199     ', 110.0000,1,     0.000,     0.000,   1,   1,1.02240,  -1.2419,   1
...
 0 /End of Bus data, Begin Load data
    10,'1 ',1,   1,   1,    10.601,     7.650,     0.000,     0.000,     0.000,     0.000,   1
    16,'1 ',1,   1,   1,    47.567,    45.000,     0.000,     0.000,     0.000,     0.000,   1
    17,'1 ',1,   1,   1,    66.739,    77.500,     0.000,     0.000,     0.000,     0.000,   1
    18,'1 ',1,   1,   1,   132.612,    97.500,     0.000,     0.000,     0.000,     0.000,   1
    29,'1 ',1,   1,   1,    22.518,    51.000,     0.000,     0.000,     0.000,     0.000,   1
    30,'1 ',1,   1,   1,    22.518,    51.000,     0.000,     0.000,     0.000,     0.000,   1
    31,'1 ',1,   1,   1,    18.184,    42.500,     0.000,     0.000,     0.000,     0.000,   1
    41,'1 ',1,   1,   1,    10.392,    25.500,     0.000,     0.000,     0.000,     0.000,   1
    42,'1 ',1,   1,   1,    10.392,    25.500,     0.000,     0.000,     0.000,     0.000,   1
    43,'1 ',1,   1,   1,    20.785,    51.000,     0.000,     0.000,     0.000,     0.000,   1
    44,'1 ',1,   1,   1,    20.785,    51.000,     0.000,     0.000,     0.000,     0.000,   1
    45,'1 ',1,   1,   1,   138.541,    63.750,     0.000,     0.000,     0.000,     0.000,   1
    57,'1 ',1,   1,   1,    19.918,     9.316,     0.000,     0.000,     0.000,     0.000,   1
    58,'1 ',1,   1,   1,    19.051,     4.922,     0.000,     0.000,     0.000,     0.000,   1
    63,'1 ',1,   1,   1,    32.390,    44.786,     0.000,     0.000,     0.000,     0.000,   1
    64,'1 ',1,   1,   1,    30.656,    47.022,     0.000,     0.000,     0.000,     0.000,   1
    65,'1 ',1,   1,   1,    11.606,     1.717,     0.000,     0.000,     0.000,     0.000,   1
    67,'1 ',1,   1,   1,    52.351,    78.285,     0.000,     0.000,     0.000,     0.000,   1
    83,'1 ',1,   1,   1,    13.859,    19.524,     0.000,     0.000,     0.000,     0.000,   1
    84,'1 ',1,   1,   1,    13.685,    18.930,     0.000,     0.000,     0.000,     0.000,   1
    85,'1 ',1,   1,   1,     8.658,    14.458,     0.000,     0.000,     0.000,     0.000,   1
    86,'1 ',1,   1,   1,     8.658,    14.161,     0.000,     0.000,     0.000,     0.000,   1
    87,'1 ',1,   1,   1,     9.613,    13.787,     0.000,     0.000,     0.000,     0.000,   1
    93,'1 ',1,   1,   1,     8.658,    13.931,     0.000,     0.000,     0.000,     0.000,   1
    95,'1 ',1,   1,   1,     5.972,     6.927,     0.000,     0.000,     0.000,     0.000,   1
    97,'1 ',1,   1,   1,     7.532,     4.471,     0.000,     0.000,     0.000,     0.000,   1
   103,'1 ',1,   1,   1,    15.680,    20.196,     0.000,     0.000,     0.000,     0.000,   1
   104,'1 ',1,   1,   1,    29.192,    39.194,     0.000,     0.000,     0.000,     0.000,   1
   105,'1 ',1,   1,   1,    19.079,    33.500,     0.000,     0.000,     0.000,     0.000,   1
   109,'1 ',1,   1,   1,     0.867,    19.006,     0.000,     0.000,     0.000,     0.000,   1
   110,'1 ',1,   1,   1,     0.867,    18.853,     0.000,     0.000,     0.000,     0.000,   1
   111,'1 ',1,   1,   1,    22.961,    15.300,     0.000,     0.000,     0.000,     0.000,   1
   123,'1 ',1,   1,   1,     4.767,     5.950,     0.000,     0.000,     0.000,     0.000,   1
   124,'1 ',1,   1,   1,     7.618,    14.450,     0.000,     0.000,     0.000,     0.000,   1
   125,'1 ',1,   1,   1,    30.943,    15.555,     0.000,     0.000,     0.000,     0.000,   1
   126,'1 ',1,   1,   1,    21.911,    13.515,     0.000,     0.000,     0.000,     0.000,   1
   127,'1 ',1,   1,   1,    22.284,    13.005,     0.000,     0.000,     0.000,     0.000,   1
   131,'1 ',1,   1,   1,    59.519,    59.500,     0.000,     0.000,     0.000,     0.000,   1
   132,'1 ',1,   1,   1,    28.603,    38.250,     0.000,     0.000,     0.000,     0.000,   1
   139,'1 ',1,   1,   1,    28.776,    19.210,     0.000,     0.000,     0.000,     0.000,   1
   140,'1 ',1,   1,   1,    25.335,    16.660,     0.000,     0.000,     0.000,     0.000,   1
   176,'1 ',1,   1,   1,     0.000,    34.000,     0.000,     0.000,     0.000,     0.000,   1
   177,'1 ',1,   1,   1,     0.000,    34.000,     0.000,     0.000,     0.000,     0.000,   1
   180,'1 ',1,   1,   1,   294.563,    42.160,     0.000,     0.000,     0.000,     0.000,   1
   183,'1 ',1,   1,   1,   130.012,     0.000,     0.000,     0.000,     0.000,     0.000,   1
   184,'1 ',1,   1,   1,   275.053,    42.755,     0.000,     0.000,     0.000,     0.000,   1
   185,'1 ',1,   1,   1,   314.134,    31.195,     0.000,     0.000,     0.000,     0.000,   1
   186,'1 ',1,   1,   1,    28.889,     0.850,     0.000,     0.000,     0.000,     0.000,   1
   187,'1 ',1,   1,   1,     6.171,     1.275,     0.000,     0.000,     0.000,     0.000,   1
   188,'1 ',1,   1,   1,     6.614,     0.850,     0.000,     0.000,     0.000,     0.000,   1
   189,'1 ',1,   1,   1,     8.468,     7.395,     0.000,     0.000,     0.000,     0.000,   1
   190,'1 ',1,   1,   1,     5.304,     1.275,     0.000,     0.000,     0.000,     0.000,   1
   191,'1 ',1,   1,   1,     5.304,     1.360,     0.000,     0.000,     0.000,     0.000,   1
   192,'1 ',1,   1,   1,    26.488,    10.200,     0.000,     0.000,     0.000,     0.000,   1
   193,'1 ',1,   1,   1,    13.244,     2.550,     0.000,     0.000,     0.000,     0.000,   1
   195,'1 ',1,   1,   1,     7.055,     1.700,     0.000,     0.000,     0.000,     0.000,   1
   196,'1 ',1,   1,   1,     5.998,     1.275,     0.000,     0.000,     0.000,     0.000,   1
   197,'1 ',1,   1,   1,     5.998,     1.275,     0.000,     0.000,     0.000,     0.000,   1
   198,'1 ',1,   1,   1,    10.678,     1.445,     0.000,     0.000,     0.000,     0.000,   1
   199,'1 ',1,   1,   1,     1.239,     0.425,     0.000,     0.000,     0.000,     0.000,   1
   200,'1 ',1,   1,   1,     0.936,     0.425,     0.000,     0.000,     0.000,     0.000,   1
   201,'1 ',1,   1,   1,     4.862,     0.425,     0.000,     0.000,     0.000,     0.000,   1
   202,'1 ',1,   1,   1,    15.896,     1.700,     0.000,     0.000,     0.000,     0.000,   1
   203,'1 ',1,   1,   1,     9.621,     1.360,     0.000,     0.000,     0.000,     0.000,   1
   205,'1 ',1,   1,   1,     5.998,     1.700,     0.000,     0.000,     0.000,     0.000,   1
   206,'1 ',1,   1,   1,     9.708,     0.850,     0.000,     0.000,     0.000,     0.000,   1
   207,'1 ',1,   1,   1,     6.345,     1.360,     0.000,     0.000,     0.000,     0.000,   1
   208,'1 ',1,   1,   1,    -6.345,    -3.825,     0.000,     0.000,     0.000,     0.000,   1
   209,'1 ',1,   1,   1,     8.113,     0.680,     0.000,     0.000,     0.000,     0.000,   1
   210,'1 ',1,   1,   1,    13.157,     3.740,     0.000,     0.000,     0.000,     0.000,   1
   211,'1 ',1,   1,   1,     7.585,     0.170,     0.000,     0.000,     0.000,     0.000,   1
   212,'1 ',1,   1,   1,     7.090,     1.275,     0.000,     0.000,     0.000,     0.000,   1
   213,'1 ',1,   1,   1,    -1.768,    -0.850,     0.000,     0.000,     0.000,     0.000,   1
   214,'1 ',1,   1,   1,    10.418,     0.425,     0.000,     0.000,     0.000,     0.000,   1
   215,'1 ',1,   1,   1,     5.998,     1.700,     0.000,     0.000,     0.000,     0.000,   1
   216,'1 ',1,   1,   1,     7.671,     0.425,     0.000,     0.000,     0.000,     0.000,   1
   217,'1 ',1,   1,   1,     5.681,     0.340,     0.000,     0.000,     0.000,     0.000,   1
   218,'1 ',1,   1,   1,    10.592,     1.275,     0.000,     0.000,     0.000,     0.000,   1
   219,'1 ',1,   1,   1,     2.211,     0.425,     0.000,     0.000,     0.000,     0.000,   1
   220,'1 ',1,   1,   1,     2.211,     0.425,     0.000,     0.000,     0.000,     0.000,   1
   221,'1 ',1,   1,   1,     3.536,     0.425,     0.000,     0.000,     0.000,     0.000,   1
   222,'1 ',1,   1,   1,     5.659,     0.340,     0.000,     0.000,     0.000,     0.000,   1
   223,'1 ',1,   1,   1,    16.165,     3.400,     0.000,     0.000,     0.000,     0.000,   1
   224,'1 ',1,   1,   1,    17.214,     2.125,     0.000,     0.000,     0.000,     0.000,   1
   225,'1 ',1,   1,   1,    14.995,     1.700,     0.000,     0.000,     0.000,     0.000,   1
   226,'1 ',1,   1,   1,    21.183,     1.275,     0.000,     0.000,     0.000,     0.000,   1
   227,'1 ',1,   1,   1,     4.862,     0.850,     0.000,     0.000,     0.000,     0.000,   1
   228,'1 ',1,   1,   1,     9.881,     0.935,     0.000,     0.000,     0.000,     0.000,   1
   229,'1 ',1,   1,   1,     9.534,     2.295,     0.000,     0.000,     0.000,     0.000,   1
   230,'1 ',1,   1,   1,     6.614,     0.850,     0.000,     0.000,     0.000,     0.000,   1
   231,'1 ',1,   1,   1,     6.882,     0.935,     0.000,     0.000,     0.000,     0.000,   1
   232,'1 ',1,   1,   1,     6.882,     0.935,     0.000,     0.000,     0.000,     0.000,   1
   233,'1 ',1,   1,   1,     1.595,     0.680,     0.000,     0.000,     0.000,     0.000,   1
   234,'1 ',1,   1,   1,    29.001,    23.800,     0.000,     0.000,     0.000,     0.000,   1
   235,'1 ',1,   1,   1,    29.261,    23.800,     0.000,     0.000,     0.000,     0.000,   1
   236,'1 ',1,   1,   1,     0.884,     0.425,     0.000,     0.000,     0.000,     0.000,   1
   237,'1 ',1,   1,   1,     6.993,     1.445,     0.000,     0.000,     0.000,     0.000,   1
   238,'1 ',1,   1,   1,     8.650,     0.850,     0.000,     0.000,     0.000,     0.000,   1
   239,'1 ',1,   1,   1,    13.244,     1.275,     0.000,     0.000,     0.000,     0.000,   1
   240,'1 ',1,   1,   1,     9.708,     1.275,     0.000,     0.000,     0.000,     0.000,   1
   241,'1 ',1,   1,   1,     8.823,     2.550,     0.000,     0.000,     0.000,     0.000,   1
   242,'1 ',1,   1,   1,     1.057,     0.085,     0.000,     0.000,     0.000,     0.000,   1
   244,'1 ',1,   1,   1,     0.884,     0.000,     0.000,     0.000,     0.000,     0.000,   1
   245,'1 ',1,   1,   1,    10.505,     4.590,     0.000,     0.000,     0.000,     0.000,   1
   246,'1 ',1,   1,   1,    -7.055,    -3.060,     0.000,     0.000,     0.000,     0.000,   1
   247,'1 ',1,   1,   1,     9.708,     1.275,     0.000,     0.000,     0.000,     0.000,   1
   248,'1 ',1,   1,   1,     2.652,     0.425,     0.000,     0.000,     0.000,     0.000,   1
   249,'1 ',1,   1,   1,     7.939,     0.000,     0.000,     0.000,     0.000,     0.000,   1
   250,'1 ',1,   1,   1,    24.017,     2.550,     0.000,     0.000,     0.000,     0.000,   1
   251,'1 ',1,   1,   1,    18.531,     3.400,     0.000,     0.000,     0.000,     0.000,   1
   252,'1 ',1,   1,   1,    15.472,     3.400,     0.000,     0.000,     0.000,     0.000,   1
   253,'1 ',1,   1,   1,    12.889,     3.655,     0.000,     0.000,     0.000,     0.000,   1
   254,'1 ',1,   1,   1,    17.214,     2.975,     0.000,     0.000,     0.000,     0.000,   1
   255,'1 ',1,   1,   1,     8.823,     0.850,     0.000,     0.000,     0.000,     0.000,   1
   256,'1 ',1,   1,   1,     4.862,     0.000,     0.000,     0.000,     0.000,     0.000,   1
   257,'1 ',1,   1,   1,     6.171,     0.170,     0.000,     0.000,     0.000,     0.000,   1
   258,'1 ',1,   1,   1,     3.536,     0.255,     0.000,     0.000,     0.000,     0.000,   1
   259,'1 ',1,   1,   1,    18.089,     3.570,     0.000,     0.000,     0.000,     0.000,   1
   260,'1 ',1,   1,   1,     9.266,     1.275,     0.000,     0.000,     0.000,     0.000,   1
   261,'1 ',1,   1,   1,     6.882,     1.700,     0.000,     0.000,     0.000,     0.000,   1
   262,'1 ',1,   1,   1,     0.173,     0.000,     0.000,     0.000,     0.000,     0.000,   1
   263,'1 ',1,   1,   1,     4.594,     0.850,     0.000,     0.000,     0.000,     0.000,   1
   264,'1 ',1,   1,   1,     6.513,     0.850,     0.000,     0.000,     0.000,     0.000,   1
   265,'1 ',1,   1,   1,    10.592,     0.850,     0.000,     0.000,     0.000,     0.000,   1
   266,'1 ',1,   1,   1,     7.229,     1.360,     0.000,     0.000,     0.000,     0.000,   1
   267,'1 ',1,   1,   1,     8.997,     2.550,     0.000,     0.000,     0.000,     0.000,   1
   268,'1 ',1,   1,   1,    12.889,     3.145,     0.000,     0.000,     0.000,     0.000,   1
   269,'1 ',1,   1,   1,    13.244,     3.400,     0.000,     0.000,     0.000,     0.000,   1
   270,'1 ',1,   1,   1,     3.180,     0.425,     0.000,     0.000,     0.000,     0.000,   1
   271,'1 ',1,   1,   1,     3.180,     0.425,     0.000,     0.000,     0.000,     0.000,   1
   272,'1 ',1,   1,   1,     8.026,     2.550,     0.000,     0.000,     0.000,     0.000,   1
   273,'1 ',1,   1,   1,    11.208,     3.145,     0.000,     0.000,     0.000,     0.000,   1
   274,'1 ',1,   1,   1,    22.249,     6.290,     0.000,     0.000,     0.000,     0.000,   1
   275,'1 ',1,   1,   1,    20.126,     5.695,     0.000,     0.000,     0.000,     0.000,   1
   276,'1 ',1,   1,   1,    12.360,     4.335,     0.000,     0.000,     0.000,     0.000,   1
   277,'1 ',1,   1,   1,    45.192,    17.340,     0.000,     0.000,     0.000,     0.000,   1
   278,'1 ',1,   1,   1,    21.626,     8.245,     0.000,     0.000,     0.000,     0.000,   1
   279,'1 ',1,   1,   1,    21.626,     8.245,     0.000,     0.000,     0.000,     0.000,   1
   281,'1 ',1,   1,   1,    26.574,    10.115,     0.000,     0.000,     0.000,     0.000,   1
   282,'1 ',1,   1,   1,    11.389,     4.335,     0.000,     0.000,     0.000,     0.000,   1
   283,'1 ',1,   1,   1,    14.752,     0.170,     0.000,     0.000,     0.000,     0.000,   1
   284,'1 ',1,   1,   1,     2.211,     0.425,     0.000,     0.000,     0.000,     0.000,   1
   285,'1 ',1,   1,   1,     7.055,     1.275,     0.000,     0.000,     0.000,     0.000,   1
   286,'1 ',1,   1,   1,    25.786,     3.485,     0.000,     0.000,     0.000,     0.000,   1
   287,'1 ',1,   1,   1,    10.592,     3.400,     0.000,     0.000,     0.000,     0.000,   1
   288,'1 ',1,   1,   1,    11.389,     3.230,     0.000,     0.000,     0.000,     0.000,   1
   289,'1 ',1,   1,   1,    18.444,     5.185,     0.000,     0.000,     0.000,     0.000,   1
   290,'1 ',1,   1,   1,    15.012,     2.550,     0.000,     0.000,     0.000,     0.000,   1
   291,'1 ',1,   1,   1,    14.569,     4.590,     0.000,     0.000,     0.000,     0.000,   1
   292,'1 ',1,   1,   1,    15.012,     4.250,     0.000,     0.000,     0.000,     0.000,   1
   293,'1 ',1,   1,   1,     6.439,     1.785,     0.000,     0.000,     0.000,     0.000,   1
   294,'1 ',1,   1,   1,    13.244,     2.550,     0.000,     0.000,     0.000,     0.000,   1
   295,'1 ',1,   1,   1,    10.287,     2.890,     0.000,     0.000,     0.000,     0.000,   1
   296,'1 ',1,   1,   1,    15.280,     4.335,     0.000,     0.000,     0.000,     0.000,   1
   297,'1 ',1,   1,   1,     7.410,     1.700,     0.000,     0.000,     0.000,     0.000,   1
   298,'1 ',1,   1,   1,     6.085,     1.360,     0.000,     0.000,     0.000,     0.000,   1
   299,'1 ',1,   1,   1,    41.656,    11.730,     0.000,     0.000,     0.000,     0.000,   1
   300,'1 ',1,   1,   1,    18.531,     7.650,     0.000,     0.000,     0.000,     0.000,   1
   301,'1 ',1,   1,   1,     5.446,     1.105,     0.000,     0.000,     0.000,     0.000,   1
   302,'1 ',1,   1,   1,     3.298,     1.105,     0.000,     0.000,     0.000,     0.000,   1
   303,'1 ',1,   1,   1,     5.533,     0.425,     0.000,     0.000,     0.000,     0.000,   1
   304,'1 ',1,   1,   1,    15.611,     4.335,     0.000,     0.000,     0.000,     0.000,   1
   305,'1 ',1,   1,   1,     6.592,     0.935,     0.000,     0.000,     0.000,     0.000,   1
   306,'1 ',1,   1,   1,    18.718,     3.400,     0.000,     0.000,     0.000,     0.000,   1
   307,'1 ',1,   1,   1,    16.057,     3.400,     0.000,     0.000,     0.000,     0.000,   1
   308,'1 ',1,   1,   1,     4.465,     0.000,     0.000,     0.000,     0.000,     0.000,   1
   311,'1 ',1,   1,   1,    28.366,     4.845,     0.000,     0.000,     0.000,     0.000,   1
   313,'1 ',1,   1,   1,     6.234,     0.425,     0.000,     0.000,     0.000,     0.000,   1
   314,'1 ',1,   1,   1,     7.017,     0.850,     0.000,     0.000,     0.000,     0.000,   1
   315,'1 ',1,   1,   1,     8.292,     0.000,     0.000,     0.000,     0.000,     0.000,   1
   316,'1 ',1,   1,   1,    14.183,     3.400,     0.000,     0.000,     0.000,     0.000,   1
   317,'1 ',1,   1,   1,     3.607,     1.700,     0.000,     0.000,     0.000,     0.000,   1
   318,'1 ',1,   1,   1,     5.358,     1.700,     0.000,     0.000,     0.000,     0.000,   1
   319,'1 ',1,   1,   1,     0.709,     0.255,     0.000,     0.000,     0.000,     0.000,   1
   320,'1 ',1,   1,   1,     6.234,     0.850,     0.000,     0.000,     0.000,     0.000,   1
   323,'1 ',1,   1,   1,     8.737,     1.530,     0.000,     0.000,     0.000,     0.000,   1
   324,'1 ',1,   1,   1,     9.806,     1.360,     0.000,     0.000,     0.000,     0.000,   1
   325,'1 ',1,   1,   1,    11.950,     0.255,     0.000,     0.000,     0.000,     0.000,   1
   326,'1 ',1,   1,   1,     5.796,     1.020,     0.000,     0.000,     0.000,     0.000,   1
   327,'1 ',1,   1,   1,     5.572,     0.085,     0.000,     0.000,     0.000,     0.000,   1
   328,'1 ',1,   1,   1,    40.125,    19.550,     0.000,     0.000,     0.000,     0.000,   1
   329,'1 ',1,   1,   1,    40.125,    19.550,     0.000,     0.000,     0.000,     0.000,   1
   330,'1 ',1,   1,   1,    42.339,    18.700,     0.000,     0.000,     0.000,     0.000,   1
   331,'1 ',1,   1,   1,    42.339,    18.700,     0.000,     0.000,     0.000,     0.000,   1
   333,'1 ',1,   1,   1,     8.292,     0.340,     0.000,     0.000,     0.000,     0.000,   1
   334,'1 ',1,   1,   1,    14.717,     0.595,     0.000,     0.000,     0.000,     0.000,   1
   335,'1 ',1,   1,   1,     3.572,     0.850,     0.000,     0.000,     0.000,     0.000,   1
   337,'1 ',1,   1,   1,    15.611,     4.675,     0.000,     0.000,     0.000,     0.000,   1
   338,'1 ',1,   1,   1,     2.233,     1.020,     0.000,     0.000,     0.000,     0.000,   1
   339,'1 ',1,   1,   1,     3.484,     1.445,     0.000,     0.000,     0.000,     0.000,   1
   340,'1 ',1,   1,   1,     9.806,     1.275,     0.000,     0.000,     0.000,     0.000,   1
   341,'1 ',1,   1,   1,     9.630,     0.085,     0.000,     0.000,     0.000,     0.000,   1
   342,'1 ',1,   1,   1,    14.271,     1.360,     0.000,     0.000,     0.000,     0.000,   1
   343,'1 ',1,   1,   1,     1.893,     0.425,     0.000,     0.000,     0.000,     0.000,   1
   344,'1 ',1,   1,   1,     6.965,     3.400,     0.000,     0.000,     0.000,     0.000,   1
   345,'1 ',1,   1,   1,    13.523,     3.400,     0.000,     0.000,     0.000,     0.000,   1
   346,'1 ',1,   1,   1,    17.057,    11.050,     0.000,     0.000,     0.000,     0.000,   1
   347,'1 ',1,   1,   1,     7.127,     3.825,     0.000,     0.000,     0.000,     0.000,   1
   348,'1 ',1,   1,   1,     1.786,     0.425,     0.000,     0.000,     0.000,     0.000,   1
   349,'1 ',1,   1,   1,    17.834,     3.825,     0.000,     0.000,     0.000,     0.000,   1
...
 0 /End of Load data, Begin Generator data
    10,'1 ',   400.000,    37.625,   120.000,     0.000,1.00000,     0,   100.000,   0.00000,   1.00000,   0.00000,   0.00000,1.00000,1,  100.0,   400.000,    70.000,   1,1.0000
    16,'1 ',   720.000,   -38.145,   440.000,   -40.000,1.01447,     0,   100.000,   0.00000,   1.00000,   0.00000,   0.00000,1.00000,1,  100.0,   720.000,   120.000,   1,1.0000
    17,'1 ',  1080.000,   -54.293,   660.000,   -60.000,1.00346,     0,   100.000,   0.00000,   1.00000,   0.00000,   0.00000,1.00000,1,  100.0,  1080.000,   120.000,   1,1.0000
    18,'1 ',   212.688,   485.215,  1540.000,  -140.000,1.00000,     0,   100.000,   0.00000,   1.00000,   0.00000,   0.00000,1.00000,1,  100.0,  2520.000,   120.000,   1,1.0000
    29,'1 ',   220.000,     3.869,   240.000,     0.000,1.00768,     0,   100.000,   0.00000,   1.00000,   0.00000,   0.00000,1.00000,1,  100.0,   400.000,    70.000,   1,1.0000
    30,'1 ',   220.000,     3.869,   240.000,     0.000,1.00768,     0,   100.000,   0.00000,   1.00000,   0.00000,   0.00000,1.00000,1,  100.0,   800.000,    70.000,   1,1.0000
    31,'1 ',  1000.000,   328.389,   350.000,     0.000,0.99317,     0,   100.000,   0.00000,   1.00000,   0.00000,   0.00000,1.00000,1,  100.0,  1000.000,   150.000,   1,1.0000
    41,'1 ',   200.000,     0.000,   120.000,     0.000,1.01190,     0,   100.000,   0.00000,   1.00000,   0.00000,   0.00000,1.00000,1,  100.0,   200.000,    70.000,   1,1.0000
    42,'1 ',   270.000,     0.000,   120.000,     0.000,1.01190,     0,   100.000,   0.00000,   1.00000,   0.00000,   0.00000,1.00000,1,  100.0,   410.000,    70.000,   1,1.0000
    43,'1 ',   410.000,    73.228,   240.000,     0.000,1.00000,     0,   100.000,   0.00000,   1.00000,   0.00000,   0.00000,1.00000,1,  100.0,   410.000,    70.000,   1,1.0000
    44,'1 ',   410.000,    73.228,   240.000,     0.000,1.00000,     0,   100.000,   0.00000,   1.00000,   0.00000,   0.00000,1.00000,1,  100.0,   410.000,    70.000,   1,1.0000
    45,'1 ',    42.200,     9.296,    21.000,     0.000,0.99770,     0,   100.000,   0.00000,   1.00000,   0.00000,   0.00000,1.00000,1,  100.0,    42.200,    39.140,   1,1.0000
    63,'1 ',   650.000,     0.654,   302.000,     0.000,1.00000,     0,   100.000,   0.00000,   1.00000,   0.00000,   0.00000,1.00000,1,  100.0,   650.000,   145.000,   1,1.0000
    64,'1 ',   450.000,     2.000,   311.000,     2.000,1.00108,     0,   100.000,   0.00000,   1.00000,   0.00000,   0.00000,1.00000,1,  100.0,   450.000,   145.000,   1,1.0000
    67,'1 ',   485.134,   403.023,   449.000,     0.000,1.00000,     0,   100.000,   0.00000,   1.00000,   0.00000,   0.00000,1.00000,1,  100.0,   750.000,   220.000,   1,1.0000
    83,'1 ',   225.000,    20.704,   190.000,   -89.000,1.00000,     0,   100.000,   0.00000,   1.00000,   0.00000,   0.00000,1.00000,1,  100.0,   225.000,   140.000,   1,1.0000
    84,'1 ',   140.000,    20.704,   190.000,   -89.000,1.00000,     0,   100.000,   0.00000,   1.00000,   0.00000,   0.00000,1.00000,1,  100.0,   225.000,   140.000,   1,1.0000
    85,'1 ',    40.000,    39.849,   125.000,   -50.000,1.00000,     0,   100.000,   0.00000,   1.00000,   0.00000,   0.00000,1.00000,1,  100.0,   120.000,    40.000,   1,1.0000
    86,'1 ',    40.000,    39.849,   125.000,   -50.000,1.00000,     0,   100.000,   0.00000,   1.00000,   0.00000,   0.00000,1.00000,1,  100.0,   120.000,    40.000,   1,1.0000
    93,'1 ',   120.000,     5.000,    90.000,     5.000,1.00026,     0,   100.000,   0.00000,   1.00000,   0.00000,   0.00000,1.00000,1,  100.0,   120.000,    80.000,   1,1.0000
    95,'1 ',   110.000,    55.653,    68.000,    27.000,1.00465,     0,   100.000,   0.00000,   1.00000,   0.00000,   0.00000,1.00000,1,  100.0,   110.000,    50.000,   1,1.0000
    97,'1 ',    87.600,    40.620,    68.000,    27.000,1.00000,     0,   100.000,   0.00000,   1.00000,   0.00000,   0.00000,1.00000,1,  100.0,    87.600,    83.260,   1,1.0000
   103,'1 ',   160.000,   -65.630,   177.000,   -82.000,1.00000,     0,   100.000,   0.00000,   1.00000,   0.00000,   0.00000,1.00000,1,  100.0,   400.000,   160.000,   1,1.0000
   104,'1 ',   140.000,   -65.630,   379.000,  -177.000,1.00000,     0,   100.000,   0.00000,   1.00000,   0.00000,   0.00000,1.00000,1,  100.0,   225.000,   140.000,   1,1.0000
   105,'1 ',   304.000,   258.558,   353.000,  -165.000,1.00000,     0,   100.000,   0.00000,   1.00000,   0.00000,   0.00000,1.00000,1,  100.0,   430.000,   160.000,   1,1.0000
   109,'1 ',   250.000,     4.174,    65.000,     0.000,1.00000,     0,   100.000,   0.00000,   1.00000,   0.00000,   0.00000,1.00000,1,  100.0,   250.000,    80.000,   1,1.0000
   110,'1 ',   250.000,     4.026,    65.000,     0.000,1.00000,     0,   100.000,   0.00000,   1.00000,   0.00000,   0.00000,1.00000,1,  100.0,   250.000,    80.000,   1,1.0000
   111,'1 ',   360.000,    58.695,   270.000,     0.000,1.00000,     0,   100.000,   0.00000,   1.00000,   0.00000,   0.00000,1.00000,1,  100.0,   360.000,    40.000,   1,1.0000
   123,'1 ',   110.000,    29.489,    40.000,     0.000,1.00000,     0,   100.000,   0.00000,   1.00000,   0.00000,   0.00000,1.00000,1,  100.0,   110.000,    20.000,   1,1.0000
   124,'1 ',   125.000,    29.489,    90.000,     0.000,1.00000,     0,   100.000,   0.00000,   1.00000,   0.00000,   0.00000,1.00000,1,  100.0,   125.000,    45.000,   1,1.0000
   125,'1 ',   135.101,    76.958,   360.000,     0.000,1.00000,     0,   100.000,   0.00000,   1.00000,   0.00000,   0.00000,1.00000,1,  100.0,   860.000,    70.000,   1,1.0000
   127,'1 ',   540.000,   291.625,   360.000,     0.000,1.00000,     0,   100.000,   0.00000,   1.00000,   0.00000,   0.00000,1.00000,1,  100.0,   690.000,    70.000,   1,1.0000
   131,'1 ',   597.231,     0.000,   360.000,     0.000,1.03658,     0,   100.000,   0.00000,   1.00000,   0.00000,   0.00000,1.00000,1,  100.0,  1060.000,    70.000,   1,1.0000
   132,'1 ',   104.535,     0.000,   480.000,     0.000,1.03658,     0,   100.000,   0.00000,   1.00000,   0.00000,   0.00000,1.00000,1,  100.0,   600.000,    70.000,   1,1.0000
   139,'1 ',   600.000,    44.003,   360.000,     0.000,1.00000,     0,   100.000,   0.00000,   1.00000,   0.00000,   0.00000,1.00000,1,  100.0,   600.000,    70.000,   1,1.0000
   140,'1 ',   200.000,    44.003,   120.000,     0.000,1.00000,     0,   100.000,   0.00000,   1.00000,   0.00000,   0.00000,1.00000,1,  100.0,   200.000,    70.000,   1,1.0000
   176,'1 ',   600.000,    90.668,   220.000,  -120.000,1.00000,     0,   100.000,   0.00000,   1.00000,   0.00000,   0.00000,1.00000,1,  100.0,   600.000,    70.000,   1,1.0000
   177,'1 ',   200.000,    90.668,   220.000,  -120.000,1.00000,     0,   100.000,   0.00000,   1.00000,   0.00000,   0.00000,1.00000,1,  100.0,   200.000,    70.000,   1,1.0000
   180,'1 ',     0.000,    58.585, 99999.000,-99999.000,1.00000,     0,   100.000,   0.00000,   1.00000,   0.00000,   0.00000,1.00000,1,  100.0,     0.000,     0.000,   1,1.0000
   181,'1 ',   175.000,   -12.393, 99999.000,-99999.000,1.00000,     0,   100.000,   0.00000,   1.00000,   0.00000,   0.00000,1.00000,1,  100.0,   175.000,   174.000,   1,1.0000
   182,'1 ',   306.000,   502.358, 99999.000,-99999.000,1.00000,     0,   100.000,   0.00000,   1.00000,   0.00000,   0.00000,1.00000,1,  100.0,   307.590,   306.000,   1,1.0000
   184,'1 ',     0.000,    96.635, 99999.000,-99999.000,1.00000,     0,   100.000,   0.00000,   1.00000,   0.00000,   0.00000,1.00000,1,  100.0,     0.000,     0.000,   1,1.0000
   185,'1 ',     0.000,    49.311, 99999.000,-99999.000,1.00000,     0,   100.000,   0.00000,   1.00000,   0.00000,   0.00000,1.00000,1,  100.0,     0.000,     0.000,   1,1.0000
   186,'1 ',     0.000,    -0.815, 99999.000,-99999.000,1.00000,     0,   100.000,   0.00000,   1.00000,   0.00000,   0.00000,1.00000,1,  100.0,     0.000,     0.000,   1,1.0000
   192,'1 ',    95.000,     0.505,    50.000,     0.000,1.02499,     0,   100.000,   0.00000,   1.00000,   0.00000,   0.00000,1.00000,1,  100.0,    95.000,    90.250,   1,1.0000
   196,'1 ',     0.860,     0.000,     1.000,     0.000,0.95507,     0,   100.000,   0.00000,   1.00000,   0.00000,   0.00000,1.00000,1,  100.0,     0.900,     0.860,   1,1.0000
   198,'1 ',     0.800,     0.745,     1.000,     0.000,0.98734,     0,   100.000,   0.00000,   1.00000,   0.00000,   0.00000,1.00000,1,  100.0,     0.800,     0.760,   1,1.0000
   205,'1 ',    15.000,     0.000,    10.000,     0.000,1.01080,     0,   100.000,   0.00000,   1.00000,   0.00000,   0.00000,1.00000,1,  100.0,    15.000,    14.250,   1,1.0000
   213,'1 ',    11.000,     8.000,     8.000,     0.000,0.98349,     0,   100.000,   0.00000,   1.00000,   0.00000,   0.00000,1.00000,1,  100.0,    11.000,    10.450,   1,1.0000
   264,'1 ',     2.500,     0.000,     2.000,     0.000,0.98697,     0,   100.000,   0.00000,   1.00000,   0.00000,   0.00000,1.00000,1,  100.0,     2.500,     2.380,   1,1.0000
   269,'1 ',     6.000,     0.069,     5.000,     0.000,1.01539,     0,   100.000,   0.00000,   1.00000,   0.00000,   0.00000,1.00000,1,  100.0,     6.000,     5.700,   1,1.0000
   277,'1 ',    70.000,    10.225,    42.000,     0.000,1.00000,     0,   100.000,   0.00000,   1.00000,   0.00000,   0.00000,1.00000,1,  100.0,    70.000,    66.500,   1,1.0000
   278,'1 ',    60.000,     0.000,    40.000,     0.000,1.00093,     0,   100.000,   0.00000,   1.00000,   0.00000,   0.00000,1.00000,1,  100.0,    60.000,    57.000,   1,1.0000
   279,'1 ',    60.000,     0.000,    40.000,     0.000,1.01007,     0,   100.000,   0.00000,   1.00000,   0.00000,   0.00000,1.00000,1,  100.0,    60.000,    57.000,   1,1.0000
   281,'1 ',   120.000,     0.374,    90.000,     0.000,1.00299,     0,   100.000,   0.00000,   1.00000,   0.00000,   0.00000,1.00000,1,  100.0,   120.000,   114.000,   1,1.0000
   282,'1 ',    40.000,     0.000,    40.000,     0.000,1.01442,     0,   100.000,   0.00000,   1.00000,   0.00000,   0.00000,1.00000,1,  100.0,    40.000,    38.000,   1,1.0000
   289,'1 ',     2.500,     0.669,     3.000,     0.000,1.00003,     0,   100.000,   0.00000,   1.00000,   0.00000,   0.00000,1.00000,1,  100.0,     2.500,     2.380,   1,1.0000
   294,'1 ',     2.000,     0.000,     1.000,     0.000,0.99897,     0,   100.000,   0.00000,   1.00000,   0.00000,   0.00000,1.00000,1,  100.0,     2.000,     1.900,   1,1.0000
   314,'1 ',     1.500,     1.000,     1.000,     0.000,0.98776,     0,   100.000,   0.00000,   1.00000,   0.00000,   0.00000,1.00000,1,  100.0,     1.500,     1.430,   1,1.0000
   328,'1 ',    44.000,     0.000,    21.000,     0.000,1.02521,     0,   100.000,   0.00000,   1.00000,   0.00000,   0.00000,1.00000,1,  100.0,    44.000,    41.800,   1,1.0000
   329,'1 ',    44.000,    17.264,    21.000,     0.000,1.00000,     0,   100.000,   0.00000,   1.00000,   0.00000,   0.00000,1.00000,1,  100.0,    44.000,    41.800,   1,1.0000
   330,'1 ',    44.000,     0.000,    21.000,     0.000,1.04520,     0,   100.000,   0.00000,   1.00000,   0.00000,   0.00000,1.00000,1,  100.0,    44.000,    41.800,   1,1.0000
   331,'1 ',    43.000,     0.541,    21.000,     0.000,1.00236,     0,   100.000,   0.00000,   1.00000,   0.00000,   0.00000,1.00000,1,  100.0,    43.000,    40.850,   1,1.0000
   334,'1 ',     1.500,     0.000,     1.000,     0.000,1.00078,     0,   100.000,   0.00000,   1.00000,   0.00000,   0.00000,1.00000,1,  100.0,     1.500,     1.430,   1,1.0000
   346,'1 ',   145.320,     0.000,   120.000,     0.000,1.00544,     0,   100.000,   0.00000,   1.00000,   0.00000,   0.00000,1.00000,1,  100.0,   200.000,    70.000,   1,1.0000
   347,'1 ',    10.000,     0.000,    15.000,     0.000,1.01286,     0,   100.000,   0.00000,   1.00000,   0.00000,   0.00000,1.00000,1,  100.0,    10.000,    10.000,   1,1.0000
   359,'1 ',     1.500,     0.000,     1.000,     0.000,1.00133,     0,   100.000,   0.00000,   1.00000,   0.00000,   0.00000,1.00000,1,  100.0,     1.500,     1.430,   1,1.0000
   365,'1 ',     5.100,     3.000,     3.000,     0.000,0.99873,     0,   100.000,   0.00000,   1.00000,   0.00000,   0.00000,1.00000,1,  100.0,     5.100,     4.850,   1,1.0000
   382,'1 ',     8.000,     5.000,     5.000,     0.000,0.98205,     0,   100.000,   0.00000,   1.00000,   0.00000,   0.00000,1.00000,1,  100.0,     8.000,     7.600,   1,1.0000
   383,'1 ',     8.000,     5.000,     5.000,     0.000,0.97600,     0,   100.000,   0.00000,   1.00000,   0.00000,   0.00000,1.00000,1,  100.0,     8.000,     7.600,   1,1.0000
   385,'1 ',     6.000,     3.884,     4.000,     0.000,0.97679,     0,   100.000,   0.00000,   1.00000,   0.00000,   0.00000,1.00000,1,  100.0,     6.000,     5.700,   1,1.0000
   390,'1 ',     4.500,     1.034,     3.000,     0.000,0.99182,     0,   100.000,   0.00000,   1.00000,   0.00000,   0.00000,1.00000,1,  100.0,     4.500,     4.280,   1,1.0000
   395,'1 ',    10.000,     0.000,     8.000,     0.000,1.01998,     0,   100.000,   0.00000,   1.00000,   0.00000,   0.00000,1.00000,1,  100.0,    10.000,     9.500,   1,1.0000
   404,'1 ',     3.000,     0.190,     3.000,     0.000,0.98499,     0,   100.000,   0.00000,   1.00000,   0.00000,   0.00000,1.00000,1,  100.0,     3.000,     2.850,   1,1.0000
   426,'1 ',     3.200,     2.000,     2.000,     0.000,0.97082,     0,   100.000,   0.00000,   1.00000,   0.00000,   0.00000,1.00000,1,  100.0,     3.200,     3.040,   1,1.0000
   444,'1 ',     1.000,     0.000,     1.000,     0.000,1.01647,     0,   100.000,   0.00000,   1.00000,   0.00000,   0.00000,1.00000,1,  100.0,     1.000,     0.950,   1,1.0000
   451,'1 ',     4.500,     1.794,     3.000,     0.000,0.99582,     0,   100.000,   0.00000,   1.00000,   0.00000,   0.00000,1.00000,1,  100.0,     4.500,     4.280,   1,1.0000
   482,'1 ',     0.950,     0.000,     1.000,     0.000,1.03924,     0,   100.000,   0.00000,   1.00000,   0.00000,   0.00000,1.00000,1,  100.0,     1.000,     0.950,   1,1.0000
   492,'1 ',     2.000,     0.000,     1.000,     0.000,1.00457,     0,   100.000,   0.00000,   1.00000,   0.00000,   0.00000,1.00000,1,  100.0,     2.000,     1.900,   1,1.0000
   493,'1 ',   228.561,     0.569,   130.000,     0.000,1.00726,     0,   100.000,   0.00000,   1.00000,   0.00000,   0.00000,1.00000,1,  100.0,   234.000,   222.300,   1,1.0000
   494,'1 ',   234.000,    88.776,   130.000,     0.000,1.00000,     0,   100.000,   0.00000,   1.00000,   0.00000,   0.00000,1.00000,1,  100.0,   234.000,   222.300,   1,1.0000
   514,'1 ',   115.000,    81.530,    90.000,     0.000,1.00000,     0,   100.000,   0.00000,   1.00000,   0.00000,   0.00000,1.00000,1,  100.0,   115.000,   109.250,   1,1.0000
   515,'1 ',   115.000,    90.000,    90.000,     0.000,0.98669,     0,   100.000,   0.00000,   1.00000,   0.00000,   0.00000,1.00000,1,  100.0,   115.000,   109.250,   1,1.0000
   525,'1 ',     6.000,     0.024,     4.000,     0.000,1.00000,     0,   100.000,   0.00000,   1.00000,   0.00000,   0.00000,1.00000,1,  100.0,     6.000,     5.700,   1,1.0000
   536,'1 ',     6.000,     0.980,     6.000,     0.000,0.97737,     0,   100.000,   0.00000,   1.00000,   0.00000,   0.00000,1.00000,1,  100.0,     6.000,     5.700,   1,1.0000
   537,'1 ',     3.500,     0.156,     3.000,     0.000,0.98509,     0,   100.000,   0.00000,   1.00000,   0.00000,   0.00000,1.00000,1,  100.0,     3.500,     3.330,   1,1.0000
   556,'1 ',     2.700,     0.000,     1.000,     0.000,0.99541,     0,   100.000,   0.00000,   1.00000,   0.00000,   0.00000,1.00000,1,  100.0,     2.700,     2.570,   1,1.0000
   580,'1 ',     1.600,     0.000,     1.000,     0.000,1.02149,     0,   100.000,   0.00000,   1.00000,   0.00000,   0.00000,1.00000,1,  100.0,     1.600,     1.520,   1,1.0000
   584,'1 ',     2.700,     2.000,     2.000,     0.000,0.98311,     0,   100.000,   0.00000,   1.00000,   0.00000,   0.00000,1.00000,1,  100.0,     2.700,     2.570,   1,1.0000
   585,'1 ',     4.000,     1.246,     2.000,     0.000,0.98336,     0,   100.000,   0.00000,   1.00000,   0.00000,   0.00000,1.00000,1,  100.0,     4.000,     3.800,   1,1.0000
   607,'1 ',     0.800,     0.000,     0.000,     0.000,1.00824,     0,   100.000,   0.00000,   1.00000,   0.00000,   0.00000,1.00000,1,  100.0,     0.800,     0.760,   1,1.0000
   612,'1 ',   200.000,     6.821,   120.000,     0.000,1.00000,     0,   100.000,   0.00000,   1.00000,   0.00000,   0.00000,1.00000,1,  100.0,   200.000,    70.000,   1,1.0000
   613,'1 ',   200.000,     6.821,   120.000,     0.000,1.00000,     0,   100.000,   0.00000,   1.00000,   0.00000,   0.00000,1.00000,1,  100.0,   200.000,    70.000,   1,1.0000
   615,'1 ',     1.400,     0.000,     1.000,     0.000,1.00709,     0,   100.000,   0.00000,   1.00000,   0.00000,   0.00000,1.00000,1,  100.0,     1.400,     1.330,   1,1.0000
   623,'1 ',     7.600,     1.619,     5.000,     0.000,0.99047,     0,   100.000,   0.00000,   1.00000,   0.00000,   0.00000,1.00000,1,  100.0,     7.600,     7.220,   1,1.0000
   639,'1 ',     9.600,     0.000,     4.000,     0.000,1.01832,     0,   100.000,   0.00000,   1.00000,   0.00000,   0.00000,1.00000,1,  100.0,     9.600,     9.120,   1,1.0000
   651,'1 ',     4.700,     0.000,     2.000,     0.000,1.01015,     0,   100.000,   0.00000,   1.00000,   0.00000,   0.00000,1.00000,1,  100.0,     4.700,     4.470,   1,1.0000
   654,'1 ',     1.400,     0.000,     1.000,     0.000,1.01307,     0,   100.000,   0.00000,   1.00000,   0.00000,   0.00000,1.00000,1,  100.0,     1.400,     1.330,   1,1.0000
   664,'1 ',     6.200,     0.000,     6.000,     0.000,0.99896,     0,   100.000,   0.00000,   1.00000,   0.00000,   0.00000,1.00000,1,  100.0,     6.200,     5.890,   1,1.0000
   670,'1 ',     2.700,     0.000,     2.000,     0.000,1.00461,     0,   100.000,   0.00000,   1.00000,   0.00000,   0.00000,1.00000,1,  100.0,     2.700,     2.570,   1,1.0000
   674,'1 ',     1.000,     0.000,     0.000,     0.000,0.99501,     0,   100.000,   0.00000,   1.00000,   0.00000,   0.00000,1.00000,1,  100.0,     1.000,     0.950,   1,1.0000
   688,'1 ',   202.000,     0.000,   120.000,     0.000,1.00701,     0,   100.000,   0.00000,   1.00000,   0.00000,   0.00000,1.00000,1,  100.0,   202.000,    70.000,   1,1.0000
   692,'1 ',     1.400,     1.000,     1.000,     0.000,0.99830,     0,   100.000,   0.00000,   1.00000,   0.00000,   0.00000,1.00000,1,  100.0,     1.400,     1.330,   1,1.0000
   699,'1 ',     3.800,     0.000,     2.000,     0.000,1.01015,     0,   100.000,   0.00000,   1.00000,   0.00000,   0.00000,1.00000,1,  100.0,     3.800,     3.610,   1,1.0000
   712,'1 ',     1.200,     0.000,     1.000,     0.000,0.99289,     0,   100.000,   0.00000,   1.00000,   0.00000,   0.00000,1.00000,1,  100.0,     1.200,     1.140,   1,1.0000
   730,'1 ',     6.900,     0.000,     3.000,     0.000,1.02850,     0,   100.000,   0.00000,   1.00000,   0.00000,   0.00000,1.00000,1,  100.0,     6.900,     6.560,   1,1.0000
   732,'1 ',     1.100,     0.000,     1.000,     0.000,1.00474,     0,   100.000,   0.00000,   1.00000,   0.00000,   0.00000,1.00000,1,  100.0,     1.100,     1.050,   1,1.0000
   735,'1 ',     4.100,     0.000,     2.000,     0.000,1.01301,     0,   100.000,   0.00000,   1.00000,   0.00000,   0.00000,1.00000,1,  100.0,     4.100,     3.900,   1,1.0000
   740,'1 ',     4.000,     0.000,     1.000,     0.000,1.03434,     0,   100.000,   0.00000,   1.00000,   0.00000,   0.00000,1.00000,1,  100.0,     4.000,     3.800,   1,1.0000
   744,'1 ',   134.000,     0.000,    60.000,     0.000,1.03932,     0,   100.000,   0.00000,   1.00000,   0.00000,   0.00000,1.00000,1,  100.0,   134.000,   127.300,   1,1.0000
   754,'1 ',    80.000,     0.000,    30.000,     0.000,1.01767,     0,   100.000,   0.00000,   1.00000,   0.00000,   0.00000,1.00000,1,  100.0,    80.000,    10.000,   1,1.0000
   755,'1 ',   250.000,     0.000,    80.000,     0.000,1.00035,     0,   100.000,   0.00000,   1.00000,   0.00000,   0.00000,1.00000,1,  100.0,   250.000,    85.000,   1,1.0000
   760,'1 ',     3.100,     0.000,     2.000,     0.000,0.99064,     0,   100.000,   0.00000,   1.00000,   0.00000,   0.00000,1.00000,1,  100.0,     3.100,     2.950,   1,1.0000
   766,'1 ',     2.100,     0.013,     1.000,     0.000,0.98601,     0,   100.000,   0.00000,   1.00000,   0.00000,   0.00000,1.00000,1,  100.0,     2.100,     2.000,   1,1.0000
   784,'1 ',     0.700,     0.000,     0.000,     0.000,1.00043,     0,   100.000,   0.00000,   1.00000,   0.00000,   0.00000,1.00000,1,  100.0,     0.700,     0.670,   1,1.0000
   790,'1 ',    49.800,    35.000,    35.000,    35.000,1.02075,     0,   100.000,   0.00000,   1.00000,   0.00000,   0.00000,1.00000,1,  100.0,    49.800,    47.310,   1,1.0000
   795,'1 ',     1.890,     1.000,     1.000,     1.000,0.98435,     0,   100.000,   0.00000,   1.00000,   0.00000,   0.00000,1.00000,1,  100.0,     1.890,     1.800,   1,1.0000
   798,'1 ',     2.990,     3.000,     3.000,     3.000,0.99850,     0,   100.000,   0.00000,   1.00000,   0.00000,   0.00000,1.00000,1,  100.0,     2.990,     2.840,   1,1.0000
   814,'1 ',    44.920,    10.265,    42.000,     0.000,1.00000,     0,   100.000,   0.00000,   1.00000,   0.00000,   0.00000,1.00000,1,  100.0,    44.920,    42.670,   1,1.0000
   834,'1 ',    23.000,     2.652,    83.000,     0.000,1.00279,     0,   100.000,   0.00000,   1.00000,   0.00000,   0.00000,1.00000,1,  100.0,    55.000,    23.000,   1,1.0000
   878,'1 ',     2.990,     0.000,     0.000,     0.000,0.99829,     0,   100.000,   0.00000,   1.00000,   0.00000,   0.00000,1.00000,1,  100.0,     2.990,     2.840,   1,1.0000
   884,'1 ',     2.370,     0.000,     0.000,     0.000,0.98358,     0,   100.000,   0.00000,   1.00000,   0.00000,   0.00000,1.00000,1,  100.0,     2.490,     2.370,   1,1.0000
   892,'1 ',    31.870,    34.224,    42.000,     6.000,1.00000,     0,   100.000,   0.00000,   1.00000,   0.00000,   0.00000,1.00000,1,  100.0,    31.870,    30.280,   1,1.0000
   895,'1 ',     8.510,     7.000,     7.000,     7.000,0.99777,     0,   100.000,   0.00000,   1.00000,   0.00000,   0.00000,1.00000,1,  100.0,     8.960,     8.510,   1,1.0000
   901,'1 ',     3.680,     2.000,     2.000,     2.000,0.98871,     0,   100.000,   0.00000,   1.00000,   0.00000,   0.00000,1.00000,1,  100.0,     3.680,     3.500,   1,1.0000
   910,'1 ',     4.580,     3.000,     3.000,     3.000,0.99936,     0,   100.000,   0.00000,   1.00000,   0.00000,   0.00000,1.00000,1,  100.0,     4.580,     4.350,   1,1.0000
   911,'1 ',   280.000,     2.119,   224.000,     0.000,1.03183,     0,   100.000,   0.00000,   1.00000,   0.00000,   0.00000,1.00000,1,  100.0,   370.000,   280.000,   1,1.0000
   912,'1 ',   280.000,     5.748,   224.000,     0.000,1.02799,     0,   100.000,   0.00000,   1.00000,   0.00000,   0.00000,1.00000,1,  100.0,   370.000,   280.000,   1,1.0000
   914,'1 ',    15.130,    10.000,    10.000,    10.000,0.99813,     0,   100.000,   0.00000,   1.00000,   0.00000,   0.00000,1.00000,1,  100.0,    15.930,    15.130,   1,1.0000
...